135398647
  -OEChem-06201906503D

 31 32  0     1  0  0  0  0  0999 V2000
    3.7136    1.6376   -0.0254 P   0  0  0  0  0  0  0  0  0  0  0  0
    1.2176   -0.3406    1.0615 O   0  0  0  0  0  0  0  0  0  0  0  0
   -0.0027   -2.9302   -1.0851 O   0  0  0  0  0  0  0  0  0  0  0  0
    2.7487    0.4116   -0.5630 O   0  0  0  0  0  0  0  0  0  0  0  0
    2.3252   -3.0494    0.3581 O   0  0  0  0  0  0  0  0  0  0  0  0
    3.8342    2.5533   -1.2399 O   0  5  0  0  0  0  0  0  0  0  0  0
    5.0212    0.9580    0.3706 O   0  5  0  0  0  0  0  0  0  0  0  0
    2.9462    2.2530    1.1410 O   0  0  0  0  0  0  0  0  0  0  0  0
   -4.8597    2.0641   -0.3997 O   0  5  0  0  0  0  0  0  0  0  0  0
   -5.3235   -0.0163    0.1254 O   0  0  0  0  0  0  0  0  0  0  0  0
   -1.0644   -0.1589    0.2265 N   0  3  0  0  0  0  0  0  0  0  0  0
   -2.1981    1.6156   -0.2436 N   0  0  0  0  0  0  0  0  0  0  0  0
   -2.7636   -1.8031    0.6193 N   0  0  0  0  0  0  0  0  0  0  0  0
   -4.4530    0.8924   -0.0942 N   0  3  0  0  0  0  0  0  0  0  0  0
    0.1152   -1.0680    0.4798 C   0  0  1  0  0  0  0  0  0  0  0  0
    0.6556   -1.7142   -0.7918 C   0  0  1  0  0  0  0  0  0  0  0  0
    2.1248   -1.9026   -0.4628 C   0  0  1  0  0  0  0  0  0  0  0  0
    2.4234   -0.6432    0.3340 C   0  0  2  0  0  0  0  0  0  0  0  0
   -2.3917   -0.5080    0.2938 C   0  0  0  0  0  0  0  0  0  0  0  0
   -0.9594    1.1332   -0.1007 C   0  0  0  0  0  0  0  0  0  0  0  0
   -3.1097    0.6158   -0.0039 C   0  0  0  0  0  0  0  0  0  0  0  0
   -0.1869   -1.8153    1.2213 H   0  0  0  0  0  0  0  0  0  0  0  0
    0.5444   -1.0358   -1.6462 H   0  0  0  0  0  0  0  0  0  0  0  0
    2.7348   -2.0162   -1.3643 H   0  0  0  0  0  0  0  0  0  0  0  0
    3.2301   -0.7938    1.0582 H   0  0  0  0  0  0  0  0  0  0  0  0
   -0.0486    1.6943   -0.2325 H   0  0  0  0  0  0  0  0  0  0  0  0
   -0.9431   -2.7272   -1.2257 H   0  0  0  0  0  0  0  0  0  0  0  0
    3.2718   -3.0875    0.5779 H   0  0  0  0  0  0  0  0  0  0  0  0
   -2.4217    2.5757   -0.4921 H   0  0  0  0  0  0  0  0  0  0  0  0
   -3.7341   -2.0985    0.6839 H   0  0  0  0  0  0  0  0  0  0  0  0
   -2.1148   -2.5613    0.8064 H   0  0  0  0  0  0  0  0  0  0  0  0
  1  4  1  0  0  0  0
  1  6  1  0  0  0  0
  1  7  1  0  0  0  0
  1  8  2  0  0  0  0
  2 15  1  0  0  0  0
  2 18  1  0  0  0  0
  3 16  1  0  0  0  0
  3 27  1  0  0  0  0
  4 18  1  0  0  0  0
  5 17  1  0  0  0  0
  5 28  1  0  0  0  0
  9 14  1  0  0  0  0
 10 14  2  0  0  0  0
 11 15  1  0  0  0  0
 11 19  1  0  0  0  0
 11 20  2  0  0  0  0
 12 20  1  0  0  0  0
 12 21  1  0  0  0  0
 12 29  1  0  0  0  0
 13 19  1  0  0  0  0
 13 30  1  0  0  0  0
 13 31  1  0  0  0  0
 14 21  1  0  0  0  0
 15 16  1  0  0  0  0
 15 22  1  0  0  0  0
 16 17  1  0  0  0  0
 16 23  1  0  0  0  0
 17 18  1  0  0  0  0
 17 24  1  0  0  0  0
 18 25  1  0  0  0  0
 19 21  2  0  0  0  0
 20 26  1  0  0  0  0
M  CHG  5   6  -1   7  -1   9  -1  11   1  14   1
M  END
> <PUBCHEM_COMPOUND_CID>
135398647

> <PUBCHEM_CONFORMER_RMSD>
0.8

> <PUBCHEM_CONFORMER_DIVERSEORDER>
1
8
2
6
5
7
10
4
9
3

> <PUBCHEM_MMFF94_PARTIAL_CHARGES>
27
1 1.37
10 -0.52
11 -0.76
12 -0.7
13 -0.9
14 0.95
15 0.79
16 0.28
17 0.28
18 0.56
19 0.45
2 -0.56
20 0.65
21 0.44
26 0.15
27 0.4
28 0.4
29 0.45
3 -0.68
30 0.4
31 0.4
4 -0.55
5 -0.68
6 -1.03
7 -1.03
8 -1.03
9 -0.52

> <PUBCHEM_EFFECTIVE_ROTOR_COUNT>
5

> <PUBCHEM_PHARMACOPHORE_FEATURES>
18
1 10 acceptor
1 12 donor
1 13 cation
1 13 donor
1 2 acceptor
1 3 acceptor
1 3 donor
1 5 acceptor
1 5 donor
1 6 acceptor
1 7 acceptor
1 8 acceptor
1 9 acceptor
1 9 anion
3 11 12 20 cation
4 1 6 7 8 anion
5 11 12 19 20 21 rings
5 2 15 16 17 18 rings

> <PUBCHEM_HEAVY_ATOM_COUNT>
21

> <PUBCHEM_ATOM_DEF_STEREO_COUNT>
4

> <PUBCHEM_ATOM_UDEF_STEREO_COUNT>
0

> <PUBCHEM_BOND_DEF_STEREO_COUNT>
0

> <PUBCHEM_BOND_UDEF_STEREO_COUNT>
0

> <PUBCHEM_ISOTOPIC_ATOM_COUNT>
0

> <PUBCHEM_COMPONENT_COUNT>
1

> <PUBCHEM_CACTVS_TAUTO_COUNT>
-1

> <PUBCHEM_CONFORMER_ID>
081204F700000001

> <PUBCHEM_MMFF94_ENERGY>
49.426

> <PUBCHEM_FEATURE_SELFOVERLAP>
91.488

> <PUBCHEM_SHAPE_FINGERPRINT>
10498660 4 18339087085046466804
10608611 8 18337108952069302025
12173636 292 18051689142713598518
12403259 118 18189327030264764112
12403259 226 17901383394540332839
12403259 415 18199473341041259872
12633257 1 16298936675945259984
12730499 353 18412271635732189691
14123255 52 18341891952251755940
15375358 24 18334577932379329803
17134986 127 18341051908478286460
18186145 218 17703240636359226880
20645477 70 18272090435677998143
21452121 103 18335415716894487176
21524375 3 18411138069535459858
2255824 54 18268711606318027534
22620623 9 17129583711388923334
23227448 37 17912362327534354228
23402539 116 18201994486780571740
23557571 272 18188508963427712171
23558518 356 18121508955463734321
23559900 14 18267862779109616811
3060560 45 18201159854312487054
3545911 37 18407763629157071873
43658 37 18343016735409137840
44154327 71 18411699893743453428
449060 62 18410294709266795216
474 4 18259706713518395932
5104073 3 18262243210103736577
58051976 378 18343866601957098468
59755656 215 18410296870278709270
7364860 26 18339923702079248594
7808743 9 18049162465056987100
81539 233 18408323293808697406
9709674 26 18268153054943912855

> <PUBCHEM_SHAPE_MULTIPOLES>
363.27
9.11
3.01
0.89
5.09
0.94
-0.04
-6.38
-0.14
-2.04
-0.51
-0.5
-0.01
0.24

> <PUBCHEM_SHAPE_SELFOVERLAP>
752.928

> <PUBCHEM_SHAPE_VOLUME>
209.8

> <PUBCHEM_COORDINATE_TYPE>
2
5
10

$$$$
